Circuit: * H:\+--- Sortierte Dokumente ---+\GitHub\CATs-Eurosynth\Modules\Standard Line\Envelope Follower\Simulation\Envelope Follower.asc

WARNING: Less than two connections to node OUT.  This node is used by R18.
Direct Newton iteration failed to find .op point.  (Use ".option noopiter" to skip.)
Starting Gmin stepping
Gmin = 10
Gmin = 1.07374
vernier = 0.5
vernier = 0.25
vernier = 0.125
vernier = 0.0625
Gmin = 1.08884
vernier = 0.03125
vernier = 0.015625
Gmin = 1.03122
vernier = 0.0078125
vernier = 0.0104167
vernier = 0.00520833
Gmin = 1.01988
vernier = 0.00260417
vernier = 0.00347222
Gmin = 1.01305
vernier = 0.00173611
vernier = 0.00231481
vernier = 0.00115741
Gmin = 1.01085
vernier = 0.00154321
vernier = 0.000771604
Gmin = 1.00871
vernier = 0.00102881
vernier = 0.000514403
Gmin = 1.00715
vernier = 0.00068587
vernier = 0.000514403
Gmin = 1.0059
vernier = 0.00068587
vernier = 0.000514402
Gmin = 0
Gmin stepping failed

Starting source stepping with srcstepmethod=0
Source Step = 3.0303%
Source Step = 33.3333%
Source Step = 63.6364%
Source Step = 93.9394%
Source stepping succeeded in finding the operating point.


Date: Wed Feb 16 11:47:56 2022
Total elapsed time: 16.929 seconds.

tnom = 27
temp = 27
method = Gear
totiter = 589335
traniter = 582965
tranpoints = 214047
accept = 140601
rejected = 73446
matrix size = 30
fillins = 58
solver = Alternate
Thread vector: 17.6/15.8[2] 4.8/3.7[2] 3.7/4.3[1] 1.0/1.5[1]  2592/500
Matrix Compiler1: 5.52 KB object code size  1.5/1.2/[0.9]
Matrix Compiler2: 4.73 KB object code size  0.8/1.1/[0.7]

